Circuit: * J:\Courses\ECEN_360\Lab1_part1.asc

.OP point found by inspection.

Date: Wed Jan 14 12:31:04 2015
Total elapsed time: 0.231 seconds.

tnom = 27
temp = 27
method = modified trap
totiter = 2082
traniter = 2082
tranpoints = 1042
accept = 1042
rejected = 0
matrix size = 3
fillins = 0
solver = Normal
Matrix Compiler1: 86 bytes object code size  0.1/0.0/[0.0]
Matrix Compiler2: 163 bytes object code size  0.1/0.2/[0.1]


