Circuit: * J:\Courses\ECEN_360\Lab1_part2.asc

.OP point found by inspection.

Date: Wed Jan 14 12:50:50 2015
Total elapsed time: 0.171 seconds.

tnom = 27
temp = 27
method = modified trap
totiter = 2108
traniter = 2108
tranpoints = 1055
accept = 1054
rejected = 1
matrix size = 4
fillins = 0
solver = Normal
Matrix Compiler1: 100 bytes object code size  0.1/0.1/[0.1]
Matrix Compiler2: 248 bytes object code size  0.1/0.2/[0.1]


