Circuit: * J:\Courses\ECEN_240\Draft4.asc

.step position=0
.step position=0.1
.step position=0.2
.step position=0.3
.step position=0.4
.step position=0.5
.step position=0.6
.step position=0.7
.step position=0.8
.step position=0.9
.step position=1

Date: Tue Feb 04 14:13:56 2014
Total elapsed time: 0.407 seconds.

tnom = 27
temp = 27
method = trap
totiter = 0
traniter = 0
tranpoints = 0
accept = 0
rejected = 0
matrix size = 3
fillins = 0
solver = Normal

