Circuit: * J:\Courses\ECEN_240\Draft2.asc

Direct Newton iteration failed to find .op point.  (Use ".option noopiter" to skip.)
Starting Gmin stepping
Gmin = 10
Gmin = 1.07374
vernier = 0.5
vernier = 0.25
vernier = 0.125
vernier = 0.0625
Gmin = 1.08884
vernier = 0.03125
vernier = 0.015625
Gmin = 1.03922
vernier = 0.0078125
vernier = 0.00390625
Gmin = 1.02313
vernier = 0.00520833
vernier = 0.00260417
Gmin = 1.01616
vernier = 0.00347222
vernier = 0.00173611
vernier = 0.00231481
Gmin = 1.01205
vernier = 0.00115741
vernier = 0.00154321
Gmin = 1.00942
vernier = 0.000771604
vernier = 0.00102881
Gmin = 1.0078
vernier = 0.000514403
vernier = 0.00068587
Gmin = 1.00672
vernier = 0.000514403
vernier = 0.00068587
vernier = 0.000514402
Gmin = 1.0059
Gmin = 0
Gmin stepping failed

Starting source stepping with srcstepmethod=0
Source Step = 3.0303%
Source Step = 33.3333%
Source Step = 63.6364%
Source Step = 93.9394%
Source stepping succeeded in finding the operating point.


Date: Tue Feb 11 13:10:18 2014
Total elapsed time: 0.457 seconds.

tnom = 27
temp = 27
method = trap
totiter = 6741
traniter = 0
tranpoints = 0
accept = 0
rejected = 0
matrix size = 11
fillins = 2
solver = Normal
Matrix Compiler1:      34 opcodes
Matrix Compiler2: off  [0.4]/0.5/1.2


