Circuit: * J:\Courses\ECEN_240\Draft3.asc

Direct Newton iteration for .op point succeeded.

Date: Tue Feb 04 14:06:02 2014
Total elapsed time: 105.027 seconds.

tnom = 27
temp = 27
method = modified trap
totiter = 2000069
traniter = 2000034
tranpoints = 1000018
accept = 1000018
rejected = 0
matrix size = 11
fillins = 2
solver = Normal
Matrix Compiler1: 570 bytes object code size  0.5/0.5/[0.2]
Matrix Compiler2: 1.00 KB object code size  0.5/0.6/[0.4]


