Circuit: * J:\Courses\ECEN_240\Lab13Schematic.asc

Direct Newton iteration for .op point succeeded.
.step position=0
.step position=0.1
.step position=0.2
.step position=0.3
.step position=0.4
.step position=0.5
.step position=0.6
.step position=0.7
.step position=0.8
.step position=0.9
.step position=1

Date: Tue Apr 01 13:06:10 2014
Total elapsed time: 0.961 seconds.

tnom = 27
temp = 27
method = trap
totiter = 20
traniter = 0
tranpoints = 0
accept = 0
rejected = 0
matrix size = 13
fillins = 2
solver = Normal
Matrix Compiler1:      44 opcodes
Matrix Compiler2: 1.21 KB object code size

