Circuit: * J:\Courses\ECEN_240\LAST_LAB.asc


Date: Thu Apr 10 20:23:00 2014
Total elapsed time: 0.057 seconds.

tnom = 27
temp = 27
method = trap
totiter = 0
traniter = 0
tranpoints = 0
accept = 0
rejected = 0
matrix size = 6
fillins = 1
solver = Normal

